"""
 This thermodynamic database was obtained by fitting the thermodynamic properties
 extracted from the following file: TOT1902.THERM
 The thermodynamic properties are fitted in order to preserve not only the
 continuity of each function at the intermediate temperature, but also the  continuity
 of the derivatives, from the 1st to the 3rd order
 The intermediate temperatures are the same for all the species.
 Last update: 4/18/2019

"""

units(length='cm', time='s', quantity='mol', act_energy='cal/mol')

ideal_gas(name='gas',
          elements="C H O N He Ar",
          species="""AR              N2              HE
                     H2              H               O2
                     O               H2O             OH
                     H2O2            HO2             CO
                     CO2             HOCO            CH4
                     CH3             CH2             CH2(S)
                     C               CH              CH3O2H
                     CH3O2           CH3OH           CH3O
                     CH2OH           CH2O            HCO
                     HO2CHO          HOCHO           OCHO
                     C2H6            C2H5            C2H5O2H
                     C2H5O2          C2H4            C2H3
                     C2H2            C2H             C2H5OH
                     C2H5O           PC2H4OH         SC2H4OH
                     C2H4O2H         C2H4O1-2        C2H3O1-2
                     CH3CHO          CH3CO           CH2CHO
                     CH2CO           HCCO            HCOOH
                     CH3CO3          CH3CO3H         CH2OHCHO
                     CHOCHO          O2C2H4O2H       HO2CH2CHO
                     CH3OCHO         CH3OCO          C3H8
                     IC3H7           NC3H7           C3H6
                     C3H5-A          C3H5-S          C3H5-T
                     C3H5O           C3H6O           CH3CHCHO
                     AC4H7OOH        CH3CHCO         AC3H5OOH
                     C3H6OH1-2       C3H6OH2-1       HOC3H6O2
                     SC3H5OH         C3H5OH          CH2CCH2OH
                     C3H4-P          C3H4-A          C3H3
                     C3H2            C2H5CHO         CH2CH2CHO
                     RALD3           C2H3CHO         CH3COCH3
                     CH3COCH2        NC4H10          PC4H9
                     SC4H9           IC4H10          IC4H9
                     TC4H9           IC4H8           IC4H7
                     IC4H7O          C4H8-1          C4H8-2
                     C4H71-3         C4H71-4         C4H71-O
                     C4H6            C4H5            C4H4
                     C4H3            C4H2            C6H6
                     FULVENE         C6H5            C5H6
                     C5H5            MCPTD           C10H8
                     NC3H7O2         IC3H7O2         C3H7OOH
                     C3-OQOOH        CHOCH2CHO       CH2OHCH2CHO
                     CH3CO2H         HCO3            HCO3H
                     CH2OHCOCH3      NC3-QOOH        IC3-QOOH
                     NC3-OOQOOH      IC3-OOQOOH      CH2COOH
                     IC4-OQOOH       NC4-OQOOH       C4H9OOH
                     C5EN-OQOOH-35   NC5H10-O        NC5-OQOOH
                     NC5H11OOH       NC4-QOOH        NC4H9-OO
                     IC4H9T-OO       IC4T-QOOH       IC4P-QOOH
                     IC4H9P-OO       NC4-OOQOOH      IC4T-OOQOOH
                     IC4P-OOQOOH     C5EN-QOOH       C5EN-OO
                     C5EN-OOQOOH-35  NC5H12OO        NC5-QOOH
                     NC5-OOQOOH      C4H6O2          C4H8O
                     C5H8O           RNC3OHOOX       QNC3OHOOX
                     ZNC3OHOOX       KEHYNC3OH       RBU1OOX
                     QBU1OOX         ZBU1OOX         KEHYBU1
                     RPENT1OOX       QPENT1OOX       ZPENT1OOX
                     KEHYP1OH        RC6OHOOX        QC6OHOOX
                     ZC6OHOOX        KEHYC6OH        RALD3OO
                     QALD3OO         ZALD3OO         ETC3H4O2
                     KEA3B3L         RALD4OOX        QA4X
                     ZA4X            KEA4X           ETALD4X
                     CH3COCHO        RALD5XOO        QA5X
                     ZA5X            KEA5X           RALD6XOO
                     QA6X            ZA6X            KEA6X
                     ETALD6X         RIBALDGOO       RIBALDBOO
                     QIBALDG2        QIBALDG3        QIBALDB3
                     ETIBALDGB       ETIBALDGG       ZIBALDG2
                     ZIBALDG3        ZIBALDB3        KIA4G2
                     NC3H7OH         CH3CHCH2OH      CH3CH2CHOH
                     CH2CH2CH2OH     CH3CH2CH2O      IC3H7OH
                     CH2CHOHCH3      CH3COHCH3       C3H7CHO
                     RALD4X          C3H5CHO         IC3H5CHO
                     NC4H7OH         IC4H7OH         IC3H7CHO
                     RIBALDB         RIBALDG         N1C4H9OH
                     CH3CH2CHCH2OH   CH2CH2CH2CH2OH  CH3CH2CH2CH2O
                     CH3CH2CH2CHOH   CH3CHCH2CH2OH   N2C4H9OH
                     CH2CH2CHOHCH3   CH3CH2CHOHCH2   CH3CHCHOHCH3
                     CH3CH2COHCH3    TC4H9OH         RTC4H8OH
                     IC4H9OH         CH3CHCH3CHOH    CH3CCH2OHCH3
                     CH2CHCH2OHCH3   MEK             C5H9OH
                     C4H9CHO         IC5H9OH         IC4H9CHO
                     RALD5X          ALDC6           RALD6X
                     C5H11OH         RPENT1OHA       RPENT1OHB
                     IC5H11OH        RIPENTOHA       RIPENTOHB
                     ESAN1OH         RESAN1OHA       RESAN1OHB
                     NC5H12          NC5H11          NEOC5H12
                     NEOC5H11        NC5H10          NC5H9-3
                     B1M2            B1M3            B2M2
                     CYC5H8          C5H7            LC5H8
                     DIALLYL         RC6H9A          CYC6H8
                     CYC6H10         RCYC6H9         CYC6H12
                     CYC6H11         NC6H12          NC7H16
                     NC7H15          NC7H14          NC7H13
                     IC8H18          IC8H17          IC8H16
                     DIMEPTD         C7H8            C6H5OH
                     C6H5CHO         C7H7            CH3C6H4
                     C6H5O           C7H7O2          O2C6H4CH3
                     OC6H4CH2        C6H5CH2O        BZCOOH
                     C6H5O2          RBBENZ          STILB
                     NEOC5H10-O      NEOC5-OQOOH     NEOC5H11-OO
                     NEOC5-QOOH      NEOC5-OOQOOH    CYC6-OO
                     CYC6-QOOH-2     CYC6-QOOH-3     CYC6-QOOH-4
                     CYC6H10-O-12    CYC6H10-O-13    CYC6H10-O-14
                     CYC6H10-ONE     C5H9CHO         CYC6-OOQOOH-2
                     CYC6-OOQOOH-3   CYC6-OOQOOH-4   CYC6-OQOOH-2
                     CYC6-OQOOH-3    CYC6-OQOOH-4    C7DIONE
                     NC7H14O         NC7H15-OO       NC7-QOOH
                     NC7-OOQOOH      C7KETONE        NC7-OQOOH
                     NC7H15OOH       IC8H16O         IC8H17-OO
                     IC8-QOOH        IC8T-QOOH       IC8-OOQOOH
                     IC8-OQOOH       RMCYC6          MCYC6
                     TMBENZ          NPBENZ          RC9H11
                     DIBZFUR         BZFUR           ODECAL
                     DECALIN         TETRALIN        DCYC5
                     RTETRALIN       RTETRAOO        RDECALIN
                     RODECA          NC10H22         NC10H21
                     C10H10          NC12H25         IC16H33
                     NC16H33         NC10H19         NC12H26
                     IC16H34         NC16H34         NC10H20
                     IC12H26         IC12H25         C6H5C4H9
                     RC6H5C4H8       C6H5C4H7-3      KHDECA
                     NC10-OQOOH      NC12-OQOOH      NC16-OQOOH
                     IC16-OQOOH      IC12-OQOOH      RMCYC6-OO
                     MCYC6-QOOH      MCYC6T-QOOH     MCYC6T-OOQOOH
                     MCYC6-OOQOOH    KMCYC6          QDECOOH
                     RDECOO          ZDECA           NC10H21-OO
                     NC10-QOOH       NC10-OOQOOH     NC12-QOOH
                     NC12H25-OO      NC12-OOQOOH     IC12-QOOH
                     IC12H25-OO      IC12-OOQOOH     NC16H33-OO
                     IC16H33-OO      IC16-QOOH       IC16T-QOOH
                     NC16-QOOH       NC16-OOQOOH     IC16-OOQOOH
                     IC16T-OOQOOH    RC6H5C4H8OO     QC6H5C4H8
                     QC6H5C4H8OO     KETBBZ          CH2OHCH2OH
                     GLYCEROL        C3H4O3          FURFURAL
                     FURAN           CH2CCHCHO       C4H3O
                     MEFU2           DMF             DMF-3YL
                     C6H10O5         C6H8O4          C6H6O3
                     C5H8O4          C7H6            C7H5
                     CYC5H4          C5H3            C5H2
                     C5H5O           CYC5H4O         C6H4O2
                     LC6H6           C6H4C2H3        CRESOL
                     RCRESOLC        RCRESOLO        C6H5CH2OH
                     C6H5C2H         C6H4C2H         C6H5C2H3
                     C6H5C2H5        C6H5C2H2        C6H5CHCH3
                     XYLENE          RXYLENE         INDENE
                     INDENYL         C10H7           C10H7OH
                     C10H7O          C10H6CH3        C10H7CH2
                     C10H7CHO        C10H7CH3        CH3C10H6OH
                     CH3C10H6O       C12H8           C12H7
                     BIPHENYL        C12H9           FLUORENE
                     C6H5CH2C6H5     C14H10          C14H9
                     C16H10          C16H9           C6H5C2H4C6H5
                     C18H10          C18H9           BENZYNE
                     LC6H5           C6H2            C6H3
                     C6H4            C8H2            BIN1B
                     BIN1A           C2              C2O
                     NO              NO2             NO3
                     N2O             NH3             NH2
                     NH              N               NNH
                     N2H4            N2H3            N2H2
                     H2NN            NCCN            HCN
                     NH2OH           H2NO            HNOH
                     HNO             HON             HONO
                     HNO2            HONO2           HNC
                     CN              HNCO            HOCN
                     HCNO            NCO             NCN
                     HNCN            NCNO            NCNOH
                     HNCNH           CH3NO           CH2NO
                     C2H5NO          CH3CHNO         CH2CHNO
                     CHCHNO          CH3NO2          CH2NO2
                     C2H5NO2         CH2CH2NO2       CH3CHNO2
                     CH3ONO          CH3ONO2         CH3CH2ONO
                     CH3CH2ONO2      H2NCHO          H2NCO
                     CH3NH2          CH2NH2          CH3NH
                     CH2NH           H2CN            HCNH
                     CH3CH2NH2       CH2CH2NH2       CH3CHNH2
                     CH3CH2NH        CH2CHNH2        CH3CHNH
                     CH2CHNH         CH2CNH2         CH3CNH
                     CH3CHN          CHCHNH2         CH3CN
                     CHCNH2          CH2CNH          CH2CHN
                     CH2CHN(S)       c-C2H3N         CH2CN
                     CHCNH           CH3NHCH3        CH3NHCH2
                     CH3NCH3         CH3NCH2         CH2NCH2
                     CH3NCH""",
          reactions='all',
          transport='Mix',
          initial_state=state(temperature=300.0, pressure=OneAtm))

#-------------------------------------------------------------------------------
# Species data
#-------------------------------------------------------------------------------

species(name='AR',
        atoms='Ar:1',
        thermo=(NASA([200.00, 1000.00],
                     [ 2.49980451E+00,  1.04980647E-06, -1.93113006E-09,
                       1.43864306E-12, -3.80279289E-16, -7.45350142E+02,
                       4.38055449E+00]),
                NASA([1000.00, 3500.00],
                     [ 2.50020265E+00, -5.42754118E-07,  4.57710824E-10,
                      -1.53917535E-13,  1.78608587E-17, -7.45429770E+02,
                       4.37863370E+00])),
        transport=gas_transport(geom='atom',
                                diam=3.33,
                                well_depth=136.5))

species(name='N2',
        atoms='N:2',
        thermo=(NASA([200.00, 1000.00],
                     [ 3.75165514E+00, -1.99226869E-03,  4.72329636E-06,
                      -3.43588570E-09,  8.77731593E-13, -1.06501254E+03,
                       2.08384546E+00]),
                NASA([1000.00, 3500.00],
                     [ 2.86705237E+00,  1.54614237E-03, -5.84320220E-07,
                       1.02525351E-10, -6.87117091E-15, -8.88091985E+02,
                       6.35154244E+00])),
        transport=gas_transport(geom='linear',
                                diam=3.621,
                                well_depth=97.53,
                                polar=1.76,
                                rot_relax=4.0))

species(name='HE',
        atoms='He:1',
        thermo=(NASA([200.00, 1000.00],
                     [ 2.49971505E+00,  1.55569514E-06, -2.81156408E-09,
                       2.07370849E-12, -5.45399915E-16, -7.45339381E+02,
                       9.29976636E-01]),
                NASA([1000.00, 3500.00],
                     [ 2.50028359E+00, -7.18471375E-07,  5.99685702E-10,
                      -2.00458029E-13,  2.31417150E-17, -7.45453089E+02,
                       9.27233751E-01])),
        transport=gas_transport(geom='atom',
                                diam=2.576,
                                well_depth=10.2))

species(name='H2',
        atoms='H:2',
        thermo=(NASA([200.00, 1000.00],
                     [ 3.03115666E+00,  2.32034174E-03, -4.08025952E-06,
                       3.24274284E-09, -8.81835310E-13, -9.77638676E+02,
                      -2.08572362E+00]),
                NASA([1000.00, 3500.00],
                     [ 3.97161381E+00, -1.44148688E-03,  1.56248342E-06,
                      -5.19085786E-10,  5.86218466E-14, -1.16573011E+03,
                      -6.62288576E+00])),
        transport=gas_transport(geom='linear',
                                diam=2.92,
                                well_depth=38.0,
                                polar=0.79,
                                rot_relax=280.0))

species(name='H',
        atoms='H:1',
        thermo=(NASA([200.00, 1000.00],
                     [ 2.49959101E+00,  2.31230753E-06, -4.17221507E-09,
                       3.06315008E-12, -8.03048392E-16,  2.54737767E+04,
                      -4.44923883E-01]),
                NASA([1000.00, 3500.00],
                     [ 2.50042553E+00, -1.02575679E-06,  8.34881423E-10,
                      -2.74914249E-13,  3.14676903E-17,  2.54736098E+04,
                      -4.48949941E-01])),
        transport=gas_transport(geom='atom',
                                diam=2.05,
                                well_depth=145.0))

species(name='O2',
        atoms='O:2',
        thermo=(NASA([200.00, 1000.00],
                     [ 3.43324602E+00, -2.52343589E-04,  2.85595221E-06,
                      -2.56041227E-09,  7.15521905E-13, -1.03130586E+03,
                       5.07932458E+00]),
                NASA([1000.00, 3500.00],
                     [ 2.65938544E+00,  2.84309875E-03, -1.78721131E-06,
                       5.35030074E-10, -5.83386805E-14, -8.76533747E+02,
                       8.81275457E+00])),
        transport=gas_transport(geom='linear',
                                diam=3.458,
                                well_depth=107.4,
                                polar=1.6,
                                rot_relax=3.8))

species(name='O',
        atoms='O:1',
        thermo=(NASA([200.00, 1000.00],
                     [ 3.00862935E+00, -1.94195728E-03,  2.93340724E-06,
                      -1.98095197E-09,  4.99719188E-13,  2.91422512E+04,
                       2.69311670E+00]),
                NASA([1000.00, 3500.00],
                     [ 2.50518318E+00,  7.18274075E-05, -8.72697957E-08,
                       3.28327158E-11, -3.72698410E-15,  2.92429404E+04,
                       5.12195346E+00])),
        transport=gas_transport(geom='atom',
                                diam=2.75,
                                well_depth=80.0))

species(name='H2O',
        atoms='H:2 O:1',
        thermo=(NASA([200.00, 1000.00],
                     [ 4.16994328E+00, -1.66990116E-03,  5.11047110E-06,
                      -3.49380916E-09,  8.55005830E-13, -3.02946923E+04,
                      -7.47692860E-01]),
                NASA([1000.00, 3500.00],
                     [ 3.33911324E+00,  1.65341899E-03,  1.25490864E-07,
                      -1.70489005E-10,  2.41757907E-14, -3.01285262E+04,
                       3.26058181E+00])),
        transport=gas_transport(geom='nonlinear',
                                diam=2.605,
                                well_depth=572.4,
                                dipole=1.844,
                                rot_relax=4.0))

species(name='OH',
        atoms='H:1 O:1',
        thermo=(NASA([200.00, 1000.00],
                     [ 3.97872055E+00, -2.15172124E-03,  3.45275604E-06,
                      -2.05518897E-09,  4.73244200E-13,  3.39026323E+03,
                      -6.45888421E-02]),
                NASA([1000.00, 3500.00],
                     [ 3.54142511E+00, -4.02539504E-04,  8.28983436E-07,
                      -3.06007231E-10,  3.59487658E-14,  3.47772231E+03,
                       2.04510885E+00])),
        transport=gas_transport(geom='linear',
                                diam=2.75,
                                well_depth=80.0))

species(name='H2O2',
        atoms='H:2 O:2',
        thermo=(NASA([200.00, 1000.00],
                     [ 3.37185986E+00,  6.97245505E-03, -3.85924438E-06,
                       1.30490079E-09, -2.14182732E-13, -1.75747947E+04,
                       7.07144066E+00]),
                NASA([1000.00, 3500.00],
                     [ 3.51570577E+00,  6.39707142E-03, -2.99616894E-06,
                       7.29517164E-10, -7.03368251E-14, -1.76035639E+04,
                       6.37746731E+00])),
        transport=gas_transport(geom='nonlinear',
                                diam=3.458,
                                well_depth=107.4,
                                rot_relax=3.8))

species(name='HO2',
        atoms='H:1 O:2',
        thermo=(NASA([200.00, 1000.00],
                     [ 3.34368647E+00,  3.16659373E-03, -3.10190366E-07,
                      -6.46736848E-10,  2.44539935E-13,  3.41143747E+02,
                       7.57826927E+00]),
                NASA([1000.00, 3500.00],
                     [ 3.03708588E+00,  4.39299607E-03, -2.14979388E-06,
                       5.79665495E-10, -6.20606503E-14,  4.02463864E+02,
                       9.05743987E+00])),
        transport=gas_transport(geom='nonlinear',
                                diam=3.458,
                                well_depth=107.4,
                                rot_relax=1.0))

species(name='CO',
        atoms='C:1 O:1',
        thermo=(NASA([200.00, 1000.00],
                     [ 3.73487888E+00, -1.96939963E-03,  4.97811162E-06,
                      -3.72708993E-09,  9.66107299E-13, -1.43551849E+04,
                       2.89110783E+00]),
                NASA([1000.00, 3500.00],
                     [ 2.74927144E+00,  1.97303012E-03, -9.35532999E-07,
                       2.15339811E-10, -1.95001372E-14, -1.41580635E+04,
                       7.64609398E+00])),
        transport=gas_transport(geom='linear',
                                diam=3.65,
                                well_depth=98.1,
                                polar=1.95,
                                rot_relax=1.8))

species(name='CO2',
        atoms='C:1 O:2',
        thermo=(NASA([200.00, 1000.00],
                     [ 2.13291201E+00,  1.05786530E-02, -1.08856973E-05,
                       6.10963951E-09, -1.41921411E-12, -4.83437869E+04,
                       1.08377958E+01]),
                NASA([1000.00, 3500.00],
                     [ 3.48283436E+00,  5.17896357E-03, -2.78616320E-06,
                       7.09950107E-10, -6.92917649E-14, -4.86137714E+04,
                       4.32520081E+00])),
        transport=gas_transport(geom='linear',
                                diam=3.763,
                                well_depth=244.0,
                                polar=2.65,
                                rot_relax=2.1))

species(name='HOCO',
        atoms='C:1 H:1 O:2',
        thermo=(NASA([200.00, 1000.00],
                     [ 2.16942654E+00,  1.37510067E-02, -1.30772322E-05,
                       6.96098639E-09, -1.57172693E-12, -2.29611489E+04,
                       1.43336961E+01]),
                NASA([1000.00, 3500.00],
                     [ 3.62941626E+00,  7.91104789E-03, -4.31729387E-06,
                       1.12102753E-09, -1.11737220E-13, -2.32531468E+04,
                       7.29008968E+00])),
        transport=gas_transport(geom='nonlinear',
                                diam=3.59,
                                well_depth=498.0,
                                rot_relax=2.0))

species(name='CH4',
        atoms='C:1 H:4',
        thermo=(NASA([300.00, 1000.00],
                     [ 2.88267749E+00,  1.94214856E-03,  1.15260930E-05,
                      -1.02993617E-08,  2.79067516E-12, -9.99996443E+03,
                       4.98178406E+00]),
                NASA([1000.00, 3500.00],
                     [-2.78766620E-02,  1.35843652E-02, -5.93723188E-06,
                       1.34285487E-09, -1.19878985E-13, -9.41785360E+03,
                       1.90235254E+01])),
        transport=gas_transport(geom='nonlinear',
                                diam=3.746,
                                well_depth=141.4,
                                polar=2.6,
                                rot_relax=13.0))

species(name='CH3',
        atoms='C:1 H:3',
        thermo=(NASA([300.00, 1000.00],
                     [ 3.51314489E+00,  3.32407152E-03,  1.96441363E-06,
                      -2.38582550E-09,  6.62282398E-13,  1.64352885E+04,
                       2.25810430E+00]),
                NASA([1000.00, 3500.00],
                     [ 2.82842765E+00,  6.06294048E-03, -2.14388982E-06,
                       3.53043462E-10, -2.24348430E-14,  1.65722320E+04,
                       5.56146918E+00])),
        transport=gas_transport(geom='linear',
                                diam=3.8,
                                well_depth=144.0))

species(name='CH2',
        atoms='C:1 H:2',
        thermo=(NASA([300.00, 1000.00],
                     [ 3.76809065E+00,  1.35628295E-03,  7.54726772E-07,
                      -7.33458347E-10,  1.76913562E-13,  4.58598578E+04,
                       1.48147432E+00]),
                NASA([1000.00, 3500.00],
                     [ 3.61144334E+00,  1.98287219E-03, -1.85157084E-07,
                      -1.06869109E-10,  2.02662526E-14,  4.58911873E+04,
                       2.23720703E+00])),
        transport=gas_transport(geom='linear',
                                diam=3.8,
                                well_depth=144.0))

species(name='CH2(S)',
        atoms='C:1 H:2',
        thermo=(NASA([300.00, 1000.00],
                     [ 4.13577387E+00, -1.91400925E-03,  7.05544794E-06,
                      -5.35373144E-09,  1.38612085E-12,  5.03725583E+04,
                      -5.04473991E-01]),
                NASA([1000.00, 3500.00],
                     [ 2.72386204E+00,  3.73363808E-03, -1.41602306E-06,
                       2.93915887E-10, -2.57909868E-14,  5.06549407E+04,
                       6.30718444E+00])),
        transport=gas_transport(geom='linear',
                                diam=3.8,
                                well_depth=144.0))

species(name='C',
        atoms='C:1',
        thermo=(NASA([200.00, 1000.00],
                     [ 2.52657882E+00, -1.00267139E-04,  1.52969446E-07,
                      -1.13100313E-10,  3.29233244E-14,  8.54452500E+04,
                       4.64354385E+00]),
                NASA([1000.00, 3500.00],
                     [ 2.48826613E+00,  5.29836311E-05, -7.69067096E-08,
                       4.01504569E-11, -5.38936819E-15,  8.54529125E+04,
                       4.82838044E+00])),
        transport=gas_transport(geom='atom',
                                diam=3.298,
                                well_depth=71.4))

species(name='CH',
        atoms='C:1 H:1',
        thermo=(NASA([300.00, 1000.00],
                     [ 3.94668100E+00, -2.66093527E-03,  5.06873905E-06,
                      -3.24061009E-09,  7.74868833E-13,  7.06082092E+04,
                       1.23095459E-01]),
                NASA([1000.00, 3500.00],
                     [ 3.20513701E+00,  3.05240694E-04,  6.19475103E-07,
                      -2.74434122E-10,  3.33248408E-14,  7.07565180E+04,
                       3.70061657E+00])),
        transport=gas_transport(geom='linear',
                                diam=2.75,
                                well_depth=80.0))

species(name='CH3O2H',
        atoms='C:1 H:4 O:2',
        thermo=(NASA([300.00, 1000.00],
                     [ 2.79011512E-01,  3.65284983E-02, -4.32767582E-05,
                       2.68255488E-08, -6.55872743E-12, -1.66191393E+04,
                       2.23967438E+01]),
                NASA([1000.00, 3500.00],
                     [ 6.76730525E+00,  1.05753234E-02, -4.34699582E-06,
                       8.72373808E-10, -7.04336957E-14, -1.79167981E+04,
                      -8.90552291E+00])),
        transport=gas_transport(geom='nonlinear',
                                diam=3.626,
                                well_depth=481.8,
                                rot_relax=1.0))

species(name='CH3O2',
        atoms='C:1 H:3 O:2',
        thermo=(NASA([300.00, 1000.00],
                     [ 1.31969541E+00,  1.90132513E-02, -1.32511041E-05,
                       5.50246530E-09, -1.07622080E-12,  3.37628754E+02,
                       1.98092274E+01]),
                NASA([1000.00, 3500.00],
                     [ 2.21424919E+00,  1.54350362E-02, -7.88378140E-06,
                       1.92425016E-09, -1.81667013E-13,  1.58717997E+02,
                       1.54935225E+01])),
        transport=gas_transport(geom='nonlinear',
                                diam=3.626,
                                well_depth=481.8,
                                rot_relax=1.0))

species(name='CH3OH',
        atoms='C:1 H:4 O:1',
        thermo=(NASA([300.00, 1000.00],
                     [ 1.19628211E+00,  1.45885441E-02, -5.69256006E-06,
                       4.47091727E-10,  1.79821486E-13, -2.51295723E+04,
                       1.80205584E+01]),
                NASA([1000.00, 3500.00],
                     [ 8.40274234E-01,  1.60125756E-02, -7.82860731E-06,
                       1.87112323E-09, -1.76186389E-13, -2.50583708E+04,
                       1.97380906E+01])),
        transport=gas_transport(geom='nonlinear',
                                diam=3.626,
                                well_depth=481.8,
                                rot_relax=1.0))

species(name='CH3O',
        atoms='C:1 H:3 O:1',
        thermo=(NASA([300.00, 1000.00],
                     [ 5.29433513E-01,  1.92966686E-02, -1.62134762E-05,
                       7.98841688E-09, -1.73961409E-12,  1.65142138E+03,
                       2.00561759E+01]),
                NASA([1000.00, 3500.00],
                     [ 2.10771029E+00,  1.29835615E-02, -6.74381555E-06,
                       1.67530979E-09, -1.61337318E-13,  1.33576602E+03,
                       1.24419028E+01])),
        transport=gas_transport(geom='nonlinear',
                                diam=3.69,
                                well_depth=417.0,
                                dipole=1.7,
                                rot_relax=2.0))

species(name='CH2OH',
        atoms='C:1 H:3 O:1',
        thermo=(NASA([300.00, 1000.00],
                     [ 1.95927202E+00,  1.63760339E-02, -1.59380502E-05,
                       8.96665120E-09, -2.10750869E-12, -3.25731836E+03,
                       1.39500047E+01]),
                NASA([1000.00, 3500.00],
                     [ 3.99199479E+00,  8.24514278E-03, -3.74171353E-06,
                       8.35760117E-10, -7.47859226E-14, -3.66386292E+03,
                       4.14329233E+00])),
        transport=gas_transport(geom='nonlinear',
                                diam=3.69,
                                well_depth=417.0,
                                dipole=1.7,
                                rot_relax=2.0))

species(name='CH2O',
        atoms='C:1 H:2 O:1',
        thermo=(NASA([300.00, 1000.00],
                     [ 2.71284956E+00,  4.15193548E-03,  4.15684130E-06,
                      -5.06975855E-09,  1.47741047E-12, -1.41481241E+04,
                       9.47131519E+00]),
                NASA([1000.00, 3500.00],
                     [ 1.10336578E+00,  1.05898706E-02, -5.50006141E-06,
                       1.36817659E-09, -1.32073317E-13, -1.38262273E+04,
                       1.72361441E+01])),
        transport=gas_transport(geom='nonlinear',
                                diam=3.59,
                                well_depth=498.0,
                                rot_relax=2.0))

species(name='HCO',
        atoms='C:1 H:1 O:1',
        thermo=(NASA([200.00, 1000.00],